[General]
network = Modelo2Hosts
sim-time-limit = 10s

**.H*.numApps = 1
**.H*.app[0].typename = "RdmaBasicApp"
**.H*.app[0].localPort = 1000
**.H*.app[0].destPort = 1000
**.H_0.app[0].destAddresses = "H_1"
**.H*.app[*].sendInterval = 0.01s
#**.H*.app[*].messageLength = ${64,128,256,512,1024,2048,4096,8192,16384,32768, 65536, 131072, 262144, 524288, 1048576, 2097152,4194304, 8388608, 16777216, 33554432, 67108864, 134217728, 2688435456, 536870912, 1073741824}B
#**.H*.app[*].destAddresses = moduleListByNedType("inet.node.rdma.RdmaHost")
**.H*.app[*].messageLength = 6000B #1GB
#**.H*.**.**.channel.retardo = 1us
#**.retardoRed = 1us

