[General]
network = Red
sim-time-limit = 2s

#**.eth[*].duplexMode = true
#**.ppp[*].ppp.queue.typename = "DropTailQueue"

**.h*.numApps = 1
**.h*.app[0].typename = "UdpBasicApp"
**.h*.app[0].localPort = 1000
**.h*.app[0].destPort = 1000
**.hA.app[0].destAddresses = "hD"
#**.hB.app[0].destAddresses = "hC"
#**.hC.app[0].destAddresses = ""
#**.hD.app[0].destAddresses = "hC"
**.h*.app[*].messageLength = 1000B
**.h*.app[*].sendInterval = 0.001s+uniform(-0.0001s,0.0001s)
**.h*.**.**.channel.retardo = 1us
**.retardoRed = 1us 
