[General]
network = examples.pruebaInicial.PruebaInicial

sim-time-limit = 2s

**.eth[*].duplexMode = true
**.ppp[*].ppp.queue.typename = "DropTailQueue"

**.h*.numApps = 1
**.h*.app[0].typename = "RdmaBasicApp"

**.h*.hasIpv4 = false
**.hA.app[*].destAddresses = 3