[General]
[General]
network = Red4Hosts
sim-time-limit = 2s

**.H*.numApps = 1
**.H*.app[0].typename = "UdpBasicApp"
**.H*.app[0].localPort = 1000
**.H*.app[0].destPort = 1000
**.H_1.app[0].destAddresses = ""
**.H*.app[0].destAddresses = "H_1"
**.H*.app[*].sendInterval = 0.01s
#64B,128B, 256B, 512B, 1KB, 2KB, 4KB, 8KB, 16KB, 32KB, 64KB, 128KB, 256KB, 512KB, 1MB, 2MB, 4MB, 8MB, 16MB, 32MB, 64MB, 128MB, 256MB, 512MB, 1GB
#**.H*.app[*].messageLength = ${64,128,256,512,1024,2048,4096,8192,16384,32768, 65536, 131072, 262144, 524288, 1048576, 2097152,4194304, 8388608, 16777216, 33554432, 67108864, 134217728, 2688435456, 536870912, 1073741824}B
#**.H*.app[*].destAddresses = moduleListByNedType("inet.node.inet.StandardHost")
**.H*.app[*].messageLength = 67108864B 

**.length = 5m

**.H*.ipv4.isRdma = false
**.H*.eth[*].isHost = true

#**.SW_1_1.hasStp = true
#**.arp.typename = "GlobalArp"